* Inverting Op-Amp Circuit

.subckt OPAMP_IDEAL inp inn out
E_amp out 0 inp inn 1e6
R_out out 0 1e-3
.ends

R_in VIN VN 10k
R_f VN VOUT 100k
V_in VIN 0 DC 1

X_U1 0 VN VOUT OPAMP_IDEAL

.op
.print dc V(VOUT) V(VN)
.end
