My Test Circuit
* Generated netlist

VW1 nodeA 0 SIN(0 5 1k 0 0 0)
R1 nodeA nodeB 1k
R2 nodeB 0 1k

* Analysis Command
.tran 1u 1m 0

* Control block for batch execution
.control
run

* Calculate voltage drops - FIXED SYNTAX
let v_R1 = v(nodeA) - v(nodeB)
let v_R2 = v(nodeB)

* Print to stdout (for parser)
print v(nodeA) v(nodeB) v_R1 v_R2

* Save to file (for backup)
set wr_vecnames
set wr_singlescale
wrdata transient_data.txt v(nodeA) v(nodeB) v_R1 v_R2

.endc

.end